! MV Lumped Loads
New Load.MV_1 Phases=1 Bus1=primary.1.0 kV=5.7735 kW=0 Kvar=0 Model=8 Vminpu=0.7 Vmaxpu=1.3 ZIPV=[0 0 1 0 0 1 0.7]
New Load.MV_2 Phases=1 Bus1=primary.2.0 kV=5.7735 kW=0 Kvar=0 Model=8 Vminpu=0.7 Vmaxpu=1.3 ZIPV=[0 0 1 0 0 1 0.7]
New Load.MV_3 Phases=1 Bus1=primary.3.0 kV=5.7735 kW=0 Kvar=0 Model=8 Vminpu=0.7 Vmaxpu=1.3 ZIPV=[0 0 1 0 0 1 0.7]
