New circuit.LV_Network bus1=slack BasekV=10 pu=1.0 Angle=0.0 phases=3 ISC3=99999999999 Isc1=99999999999

! MV Line
New Line.MV_line Bus1=slack Bus2=primary Phases=3 R1=0.164 X1=0.092 C1=0.47 R0=0.656 X0=0.371 C0=0.6983 Units=km Length=10
